[Format]      =  4.0
[Frequency]   =  0
[Precision]   =  1e-008
[MinAngle]    =  30
[Depth]       =  1
[LengthUnits] =  inches
[ProblemType] =  planar
[Coordinates] =  cartesian
[ACSolver]    =  0
[Comment]     =  "Add comments here."
[PointProps]   = 0
[BdryProps]   = 2
  <BeginBdry>
    <BdryName> = "A=0"
    <BdryType> = 0
    <A_0> = 0
    <A_1> = 0
    <A_2> = 0
    <Phi> = 0
    <c0> = 0
    <c0i> = 0
    <c1> = 0
    <c1i> = 0
    <Mu_ssd> = 0
    <Sigma_ssd> = 0
  <EndBdry>
  <BeginBdry>
    <BdryName> = "ABC"
    <BdryType> = 2
    <A_0> = 0
    <A_1> = 0
    <A_2> = 0
    <Phi> = 0
    <c0> = 31329713.207066011
    <c0i> = 0
    <c1> = 0
    <c1i> = 0
    <Mu_ssd> = 0
    <Sigma_ssd> = 0
  <EndBdry>
[BlockProps]  = 14
  <BeginBlock>
    <BlockName> = "Alnico 6"
    <Mu_x> = 3.2999999999999998
    <Mu_y> = 3.2999999999999998
    <H_c> = 59907
    <H_cAngle> = 0
    <J_re> = 0
    <J_im> = 0
    <Sigma> = 2.25
    <d_lam> = 0
    <Phi_h> = 0
    <Phi_hx> = 0
    <Phi_hy> = 0
    <LamType> = 0
    <LamFill> = 1
    <NStrands> = 0
    <WireD> = 0
    <BHPoints> = 26
      0	0
      0.10402	1131.5899999999999
      0.18934000000000001	2098.46
      0.26712000000000002	3207.77
      0.33743000000000001	4310.71
      0.40393000000000001	5560.0799999999999
      0.47026000000000001	7106.2700000000004
      0.52539000000000002	8643.7000000000007
      0.57662999999999998	10475.6
      0.63507999999999998	12760.200000000001
      0.69674999999999998	15942.6
      0.74002000000000001	18661.700000000001
      0.78312000000000004	21679.299999999999
      0.81535999999999997	24090.5
      0.84031	26198.5
      0.87238000000000004	28908.099999999999
      0.90412000000000003	32213.799999999999
      0.92864999999999998	35065.800000000003
      0.95318000000000003	37917.900000000001
      0.97397999999999996	40767.5
      0.99451999999999996	44062.800000000003
      1.0149999999999999	47507.800000000003
      1.0354000000000001	51102.300000000003
      1.0487	53944.800000000003
      1.0622	56489.599999999999
      1.0751999999999999	59928.199999999997
  <EndBlock>
  <BeginBlock>
    <BlockName> = "Alnico 5"
    <Mu_x> = 1.5
    <Mu_y> = 1.5
    <H_c> = 50963
    <H_cAngle> = 0
    <J_re> = 0
    <J_im> = 0
    <Sigma> = 2.25
    <d_lam> = 0
    <Phi_h> = 0
    <Phi_hx> = 0
    <Phi_hy> = 0
    <LamType> = 0
    <LamFill> = 1
    <NStrands> = 0
    <WireD> = 0
    <BHPoints> = 26
      0	0
      0.12561	253.85213400000001
      0.30829000000000001	707.44372199999998
      0.48333999999999999	1452.2888559999999
      0.61734	2162.915677
      0.75499000000000005	3024.739693
      0.84413000000000005	3845.9792000000002
      0.92927999999999999	5110.4652230000002
      0.98077000000000003	6495.9090020000003
      1.02467	8023.0006810000004
      1.0464	9234.1697980000008
      1.0714999999999999	11043.761501000001
      1.0929	12850.170104999999
      1.1068	14650.212512
      1.1242000000000001	16900.663407
      1.1378999999999999	19147.135429000002
      1.1516999999999999	21245.593353
      1.1652	23790.480893
      1.175	26182.579688000002
      1.1915	30071.530722
      1.2045999999999999	33361.263396000002
      1.2177	36650.996070000001
      1.2273000000000001	39490.320254999999
      1.2397	43971.486832000002
      1.2487999999999999	47704.784332000003
      1.2544	50988.028258999999
  <EndBlock>
  <BeginBlock>
    <BlockName> = "Air"
    <Mu_x> = 1
    <Mu_y> = 1
    <H_c> = 0
    <H_cAngle> = 0
    <J_re> = 0
    <J_im> = 0
    <Sigma> = 0
    <d_lam> = 0
    <Phi_h> = 0
    <Phi_hx> = 0
    <Phi_hy> = 0
    <LamType> = 0
    <LamFill> = 1
    <NStrands> = 0
    <WireD> = 0
    <BHPoints> = 0
  <EndBlock>
  <BeginBlock>
    <BlockName> = "Ceramic 5"
    <Mu_x> = 1.8859999999999999
    <Mu_y> = 1.8859999999999999
    <H_c> = 191262
    <H_cAngle> = 0
    <J_re> = 0
    <J_im> = 0
    <Sigma> = 0
    <d_lam> = 0
    <Phi_h> = 0
    <Phi_hx> = 0
    <Phi_hy> = 0
    <LamType> = 0
    <LamFill> = 1
    <NStrands> = 0
    <WireD> = 0
    <BHPoints> = 11
      0	0
      0.11225	9979.6124409999993
      0.119417	10822.945775
      0.15196999999999999	21699.612441000001
      0.177037	36726.279108000002
      0.23735000000000001	78449.612441000005
      0.259793	94301.612441000005
      0.31205699999999997	131847.945775
      0.33257700000000001	146865.612441
      0.354493	162718.27910799999
      0.39151000000000002	191082.325775
  <EndBlock>
  <BeginBlock>
    <BlockName> = "Ceramic 8"
    <Mu_x> = 1.4384600000000001
    <Mu_y> = 1.4384600000000001
    <H_c> = 233568
    <H_cAngle> = 0
    <J_re> = 0
    <J_im> = 0
    <Sigma> = 0
    <d_lam> = 0
    <Phi_h> = 0
    <Phi_hx> = 0
    <Phi_hy> = 0
    <LamType> = 0
    <LamFill> = 1
    <NStrands> = 0
    <WireD> = 0
    <BHPoints> = 9
      0	0
      0.040029000000000002	1488.09925
      0.069106000000000001	5665.9179999999997
      0.087951000000000001	15231.1335
      0.11024	30247.407749999998
      0.15995000000000001	63009.464500000002
      0.24912000000000001	128493.78925
      0.32113999999999998	180339.326275
      0.39145000000000002	233567.92025
  <EndBlock>
  <BeginBlock>
    <BlockName> = "NdFeB 32 MGOe"
    <Mu_x> = 1.0449999999999999
    <Mu_y> = 1.0449999999999999
    <H_c> = 883310
    <H_cAngle> = 0
    <J_re> = 0
    <J_im> = 0
    <Sigma> = 0.69399999999999995
    <d_lam> = 0
    <Phi_h> = 0
    <Phi_hx> = 0
    <Phi_hy> = 0
    <LamType> = 0
    <LamFill> = 1
    <NStrands> = 0
    <WireD> = 0
    <BHPoints> = 0
  <EndBlock>
  <BeginBlock>
    <BlockName> = "u1"
    <Mu_x> = 2.6498996896116669
    <Mu_y> = 2.6498996896116669
    <H_c> = 0
    <H_cAngle> = 0
    <J_re> = 0
    <J_im> = 0
    <Sigma> = 0
    <d_lam> = 0
    <Phi_h> = 0
    <Phi_hx> = 0
    <Phi_hy> = 0
    <LamType> = 0
    <LamFill> = 1
    <NStrands> = 0
    <WireD> = 0
    <BHPoints> = 0
  <EndBlock>
  <BeginBlock>
    <BlockName> = "u2"
    <Mu_x> = 0.12953316809300527
    <Mu_y> = 0.12953316809300527
    <H_c> = 0
    <H_cAngle> = 0
    <J_re> = 0
    <J_im> = 0
    <Sigma> = 0
    <d_lam> = 0
    <Phi_h> = 0
    <Phi_hx> = 0
    <Phi_hy> = 0
    <LamType> = 0
    <LamFill> = 1
    <NStrands> = 0
    <WireD> = 0
    <BHPoints> = 0
  <EndBlock>
  <BeginBlock>
    <BlockName> = "u3"
    <Mu_x> = 14.398967120915913
    <Mu_y> = 14.398967120915913
    <H_c> = 0
    <H_cAngle> = 0
    <J_re> = 0
    <J_im> = 0
    <Sigma> = 0
    <d_lam> = 0
    <Phi_h> = 0
    <Phi_hx> = 0
    <Phi_hy> = 0
    <LamType> = 0
    <LamFill> = 1
    <NStrands> = 0
    <WireD> = 0
    <BHPoints> = 0
  <EndBlock>
  <BeginBlock>
    <BlockName> = "u4"
    <Mu_x> = 0.042882574356338271
    <Mu_y> = 0.042882574356338271
    <H_c> = 0
    <H_cAngle> = 0
    <J_re> = 0
    <J_im> = 0
    <Sigma> = 0
    <d_lam> = 0
    <Phi_h> = 0
    <Phi_hx> = 0
    <Phi_hy> = 0
    <LamType> = 0
    <LamFill> = 1
    <NStrands> = 0
    <WireD> = 0
    <BHPoints> = 0
  <EndBlock>
  <BeginBlock>
    <BlockName> = "SmCo 20 MGOe"
    <Mu_x> = 1.0345
    <Mu_y> = 1.0345
    <H_c> = 693000
    <H_cAngle> = 0
    <J_re> = 0
    <J_im> = 0
    <Sigma> = 1.1759999999999999
    <d_lam> = 0
    <Phi_h> = 0
    <Phi_hx> = 0
    <Phi_hy> = 0
    <LamType> = 0
    <LamFill> = 1
    <NStrands> = 0
    <WireD> = 0
    <BHPoints> = 0
  <EndBlock>
  <BeginBlock>
    <BlockName> = "u5"
    <Mu_x> = 37.197476986533054
    <Mu_y> = 37.197476986533054
    <H_c> = 0
    <H_cAngle> = 0
    <J_re> = 0
    <J_im> = 0
    <Sigma> = 0
    <d_lam> = 0
    <Phi_h> = 0
    <Phi_hx> = 0
    <Phi_hy> = 0
    <LamType> = 0
    <LamFill> = 1
    <NStrands> = 0
    <WireD> = 0
    <BHPoints> = 0
  <EndBlock>
  <BeginBlock>
    <BlockName> = "u6"
    <Mu_x> = 0.015664246064106369
    <Mu_y> = 0.015664246064106369
    <H_c> = 0
    <H_cAngle> = 0
    <J_re> = 0
    <J_im> = 0
    <Sigma> = 0
    <d_lam> = 0
    <Phi_h> = 0
    <Phi_hx> = 0
    <Phi_hy> = 0
    <LamType> = 0
    <LamFill> = 1
    <NStrands> = 0
    <WireD> = 0
    <BHPoints> = 0
  <EndBlock>
  <BeginBlock>
    <BlockName> = "u7"
    <Mu_x> = 142.03015659052124
    <Mu_y> = 142.03015659052124
    <H_c> = 0
    <H_cAngle> = 0
    <J_re> = 0
    <J_im> = 0
    <Sigma> = 0
    <d_lam> = 0
    <Phi_h> = 0
    <Phi_hx> = 0
    <Phi_hy> = 0
    <LamType> = 0
    <LamFill> = 1
    <NStrands> = 0
    <WireD> = 0
    <BHPoints> = 0
  <EndBlock>
[CircuitProps]  = 0
[NumPoints] = 15
5.7132076847210556e-013	1.9999999999999982	0	1
5.0000000000007141	1.999999999999436	0	1
6.8256511553954624e-013	4.0000000000000053	0	1
5.0000000000007887	3.9999999999995399	0	1
-2.5	-5	0	2
-2.5	-3	0	2
2.5	-3	0	2
2.5	-5	0	2
-58.619999999988345	0.043584306738816608	0	0
61.70000000001167	0.29958430673881653	0	0
-0.63599999998831769	45.163584306738812	0	0
0.64400000001168201	-45.716415693261197	0	0
0	-4	0	2
2.5	4	0	1
2.5	2	0	1
[NumSegments] = 11
0	2	-1	0	0	1
3	1	-1	0	0	1
0	14	-1	0	0	1
2	13	-1	0	0	1
4	5	-1	0	0	2
6	7	-1	0	0	2
4	7	-1	0	0	2
5	6	-1	0	0	2
13	3	-1	0	0	1
14	1	-1	0	0	1
13	14	-1	0	1	1
[NumArcSegments] = 4
9	10	90	1	2	0	3
10	8	90	1	2	0	3
8	11	90	1	2	0	3
11	9	90	1	2	0	3
[NumHoles] = 0
[NumBlockLabels] = 4
0.22	-3.9100000000000001	11	-1	0	90	2	1	0
-2.2000000000000002	3.4100000000000001	3	-1	0	0	0	1	0
1.3	3.2999999999999998	11	-1	0	-90	1	1	0
4.0999999999999996	3.1000000000000001	11	-1	0	-90	1	1	0
